SIMULATION
  SIMULATION_TYPE SUBSURFACE
  
  PROCESS_MODELS
    SUBSURFACE_FLOW flow
      MODE RICHARDS
    /
    SUBSURFACE_TRANSPORT transport
      MODE GIRT
    /
  /

  CHECKPOINT 
    FORMAT HDF5
    PERIODIC TIME 100 yr
  /

END

SUBSURFACE

REFERENCE_TEMPERATURE 35
NUMERICAL_METHODS flow
  NEWTON_SOLVER
    ITOL_UPDATE 1.0d0
    NO_PRINT_CONVERGENCE
  /
  TIMESTEPPER
    INITIAL_TIMESTEP_SIZE 1.d-5 yr
    MAXIMUM_TIMESTEP_SIZE 1.d-3 yr    
    MAXIMUM_TIMESTEP_SIZE 1.d0 yr at 1 yr
    MAXIMUM_NUMBER_OF_TIMESTEPS 100000000
  /
/

NUMERICAL_METHODS transport
  NEWTON_SOLVER
    STOL 1e-50
    ATOL 1e-13
    RTOL 1e-7
    MAXIMUM_NUMBER_OF_ITERATIONS 15
    NO_PRINT_CONVERGENCE
  /
  TIMESTEPPER
    INITIAL_TIMESTEP_SIZE 1.d-5 yr
    MAXIMUM_TIMESTEP_SIZE 1.d-3 yr
    MAXIMUM_TIMESTEP_SIZE 1.d-2 yr at 1 yr
    MAXIMUM_NUMBER_OF_TIMESTEPS 100000000
  /
/

CHEMISTRY

  ACTIVITY_COEFFICIENTS LAG TIMESTEP

  PRIMARY_SPECIES
    H+
    Ca++
    Na+
    K+
    Mg++
    CO3--
    Cl-
    UO2++
    O2(aq)
    H4(SiO4)
    Fe++
    Al+++
    SO4--
  /
  SECONDARY_SPECIES
    OH-
    CH4
    Al(OH)4-
    Al(OH)3
    NaAl(OH)4
    Al(OH)2+
    HCO3-
    CO2 
    Na(HCO3)
    Mg(HCO3)+
    CaCO3
    Na(CO3)-
    FeCO3
    Fe(OH)CO3
    Ca(SO4)
    Ca(HCO3)+
    MgCl+
    Fe+++
    FeCl+
    Fe(SO4)
    Fe(OH)+
    Fe(OH)2+
    Fe(OH)3
    Fe(CO3)2--
    H2(aq)
    Mg(SO4)
    Mg(CO3)
    U++++
    Ca2UO2(CO3)3
    CaUO2(CO3)3--
    UO2(CO3)3----
    MgUO2(CO3)3--
    Mg2UO2(CO3)3
    UO2(CO3)2--
    UO2(CO3)
    UO2(OH)+
    UO2(OH)2
    U(OH)4
    UO2+
    HS-
    H2S
    Fe(HS)+
    SO3--
    S2O3--
    Na(S2O3)-
    Mg(S2O3)
    Ca(S2O3)
    H(SO3)-
    H(SO4)-
  /
  
  PASSIVE_GAS_SPECIES
    O2(g)
  /
  
  MINERALS
    Smectite_MX80
    InertMineral
    Quartz
    Gypsum
    Pyrite
    Calcite
    Dolomite
    Siderite
    Uraninite
  /

  ! Kinetics data from Palandri and Kharaka (2004) and Marty et al. (2015)
    
    MINERAL_KINETICS
    
    Smectite_MX80
      RATE_CONSTANT		0.0 mol/m^2-sec
    /

    InertMineral
      RATE_CONSTANT   0.0 mol/m^2-sec
    /
    
    Quartz
      SURFACE_AREA_FUNCTION MINERAL_MASS
      SPECIFIC_SURFACE_AREA 50.0
      NUCLEATION_KINETICS simplified_eq
      PREFACTOR
        RATE_CONSTANT		  -13.99
	      ACTIVATION_ENERGY	87.6d3
      /
    /
    
    Gypsum
      SURFACE_AREA_FUNCTION MINERAL_MASS
      SPECIFIC_SURFACE_AREA 50.0
      NUCLEATION_KINETICS simplified_eq
      PREFACTOR
        RATE_CONSTANT 		-2.79d0
	      ACTIVATION_ENERGY 	0.00
      /
    /   
    
    Calcite
      SURFACE_AREA_FUNCTION MINERAL_MASS
      SPECIFIC_SURFACE_AREA 700.0
      NUCLEATION_KINETICS simplified_eq
      RATE_CONSTANT 1e-9
    /
    
    Pyrite
      SURFACE_AREA_FUNCTION MINERAL_MASS
      SPECIFIC_SURFACE_AREA 50.0
      NUCLEATION_KINETICS simplified_eq
      PREFACTOR
        RATE_CONSTANT     -7.52
        ACTIVATION_ENERGY 56.9d3
        PREFACTOR_SPECIES H+
          ALPHA           -0.5
        /
        PREFACTOR_SPECIES Fe+++
          ALPHA           0.5
        /
      /
      PREFACTOR
        RATE_CONSTANT     -4.55
        ACTIVATION_ENERGY 56.9d3
        PREFACTOR_SPECIES O2(aq)
          ALPHA           0.5
        /
      /
    /
        
    Dolomite
      SURFACE_AREA_FUNCTION MINERAL_MASS
      SPECIFIC_SURFACE_AREA 90.0
      NUCLEATION_KINETICS simplified_eq
      PREFACTOR
        RATE_CONSTANT		-3.553
	      ACTIVATION_ENERGY	46d3
	      PREFACTOR_SPECIES	H+
	        ALPHA			0.61
	      /
      /
      PREFACTOR
        RATE_CONSTANT		-7.959
	      ACTIVATION_ENERGY	31d3
      /
    /
        
    Siderite
      SURFACE_AREA_FUNCTION MINERAL_MASS
      SPECIFIC_SURFACE_AREA 2700.0
      NUCLEATION_KINETICS simplified_eq
      PREFACTOR
        RATE_CONSTANT		-5.23
	      ACTIVATION_ENERGY	56.0d3
	      PREFACTOR_SPECIES	H+
	        ALPHA			0.6
	      /
      /
      PREFACTOR
        RATE_CONSTANT		-8.68
	      ACTIVATION_ENERGY	56.0d3
      /
    /
       
    Uraninite
      SURFACE_AREA_FUNCTION MINERAL_MASS
      SPECIFIC_SURFACE_AREA 50.0
      NUCLEATION_KINETICS simplified_eq
      PREFACTOR
        RATE_CONSTANT		-7.98
	      ACTIVATION_ENERGY	32d3
      /
    /     
  /

  NUCLEATION_KINETICS
    SIMPLIFIED simplified_eq
      RATE_CONSTANT 1.0
      GAMMA 1.d10
    /
  /
  
  SORPTION
    ION_EXCHANGE_RXN
      MINERAL Smectite_MX80
      CEC 2.3925d3 ! unit: eq/m^3 of specified mineral 
      CATIONS
        Na+ 1. REFERENCE
        K+ 3.9810717
	      Ca++ 2.5703957
        Mg++ 2.18776
	      UO2++ 2.8183829
      /
    /
  
    SURFACE_COMPLEXATION_RXN
      EQUILIBRIUM
      MINERAL Smectite_MX80
      SITE >SOH 5.50 ! unit: mol/m^3 of specified mineral
      COMPLEXES
        >SOH2+
        >SO-
        >SOUO2+
        >SOUO2OH
        >SOUO2(OH)2-
        >SOUO2(OH)3--
        >SOUO2CO3-
        >SOUO2(CO3)2---
      /
    /

    SURFACE_COMPLEXATION_RXN
      EQUILIBRIUM
      MINERAL Smectite_MX80
      SITE >WOH 1.11d2 ! unit: mol/m^3 of specified mineral
      COMPLEXES
        >WOH2+
        >WO-
        >WOUO2+
        >WOUO2OH
        >WOUO2CO3-
      /
    /
  
    SURFACE_COMPLEXATION_RXN
      EQUILIBRIUM
      MINERAL Smectite_MX80 
      SITE >MOH 1.11d2 ! unit: mol/m^3 of specified mineral
      COMPLEXES
        >MOH2+
        >MO-
      /
    /
  /
  
  DATABASE ./PFLOTRAN_O2_ThermoChimie_v12a_T_modified.dat
  
  LOG_FORMULATION
  UPDATE_POROSITY
  UPDATE_PERMEABILITY
  
  OUTPUT
    ALL
    PH
    PE
    KD
    TOTAL
    SECONDARY_SPECIES
    TOTAL_SORBED
    MOLARITY
  /
  
END

GRID
  TYPE UNSTRUCTURED mesh.h5
END

FLUID_PROPERTY
  DIFFUSION_COEFFICIENT 1.d-9 
END

MATERIAL_PROPERTY source
  ID 3
  POROSITY 0.01
  TORTUOSITY 1.0
  LONGITUDINAL_DISPERSIVITY 1
  PERMEABILITY
    PERM_ISO 1.d-20 ! unit: m^2
  /
  CHARACTERISTIC_CURVES default
END

MATERIAL_PROPERTY bentonite
  ID 2
   POROSITY 0.32758234399999997
  TORTUOSITY 1.0
  LONGITUDINAL_DISPERSIVITY 1
  PERMEABILITY
    PERM_ISO 1.d-19 ! unit: m^2
  /
  CHARACTERISTIC_CURVES default
END

MATERIAL_PROPERTY granite_fracture
  ID 1
  POROSITY 0.8
  TORTUOSITY 1.0
  LONGITUDINAL_DISPERSIVITY 1
  PERMEABILITY
    PERM_ISO 8.06e-16 ! unit: m^2
  /
  CHARACTERISTIC_CURVES default
END

CHARACTERISTIC_CURVES default
  DEFAULT
END

OBSERVATION
  REGION east
  VELOCITY
END

OUTPUT
  VELOCITY_AT_CENTER
  SNAPSHOT_FILE
    PERIODIC TIME 100 yr
    FORMAT HDF5
    VARIABLES
      POROSITY
      PERMEABILITY
      VOLUME
    /
  /
  OBSERVATION_FILE
    PERIODIC TIME 1 yr
    VARIABLES
      NO_FLOW_VARIABLES
      NO_ENERGY_VARIABLES
      POROSITY
      VOLUME
    /
  /
END

TIME
  FINAL_TIME 10000 yr
END

REGION all
  COORDINATES
    -10.d0 -3.d0 -5.d0
    10.d0 3.d0 5.d0
  /
END

REGION west
  FILE sideset1.ss
END

REGION east
  FILE sideset2.ss
END

REGION source 
  FILE material_3.txt
END

REGION bentonite
  FILE material_2.txt
END

REGION granite_fracture
  FILE material_1.txt
END

FLOW_CONDITION initial_pressure
  TYPE
    LIQUID_PRESSURE DIRICHLET
  /
  LIQUID_PRESSURE 501325.d0 ! unit: Pa
END

FLOW_CONDITION inlet_pressure
  TYPE
    LIQUID_PRESSURE DIRICHLET
  /
    LIQUID_PRESSURE 501767.7521 ! unit: Pa
END

TRANSPORT_CONDITION GRANITE_TC
  TYPE DIRICHLET_ZERO_GRADIENT
  CONSTRAINT_LIST
    0.d0 granite_conc
  /
END

TRANSPORT_CONDITION BENTONITE_TC
  TYPE DIRICHLET_ZERO_GRADIENT
  CONSTRAINT_LIST
    0.d0 bentonite_conc
  /
END

TRANSPORT_CONDITION SOURCE_TC
  TYPE DIRICHLET_ZERO_GRADIENT
  CONSTRAINT_LIST
    0.d0 source_conc
  /
END

TRANSPORT_CONDITION INLET_TC
  TYPE DIRICHLET
  TIME_UNITS yr
  CONSTRAINT_LIST
    0.d0 seawater_conc
  /
END

INITIAL_CONDITION GRANITE
  FLOW_CONDITION initial_pressure
  TRANSPORT_CONDITION GRANITE_TC 
  REGION granite_fracture
END

INITIAL_CONDITION BENTONITE
  FLOW_CONDITION initial_pressure
  TRANSPORT_CONDITION BENTONITE_TC
  REGION bentonite
END

INITIAL_CONDITION SOURCE
  FLOW_CONDITION initial_pressure
  TRANSPORT_CONDITION SOURCE_TC
  REGION source
END

BOUNDARY_CONDITION OUTLET
  FLOW_CONDITION initial_pressure
  TRANSPORT_CONDITION GRANITE_TC
  REGION east
END

BOUNDARY_CONDITION INLET
  FLOW_CONDITION inlet_pressure
  TRANSPORT_CONDITION INLET_TC
  REGION west
END

! Constraints are pre-calculated by PHREEQC to achieve semi-equilibrium state
CONSTRAINT granite_conc
  CONCENTRATIONS
    H+		6.835755	    pH
    CO3--	0.002026703	  T
    Ca++ 	0.02312673	  T
    Cl-		0.1392766	    Z
    Fe++	0.00003310031	T
    K+		0.000875	    T
    Mg++	0.009300036	  T
    Na+		0.0888	      T
    SO4--	0.006800089 	T
    H4(SiO4)	0.0002337517	T
    Al+++	1.00E-16			T
    UO2++	1.00E-16			T
    O2(aq)	-1.630437	PE
  /
  MINERALS
    Smectite_MX80 	0.0	1e2 	m^2/m^3
    InertMineral 0.11622 0.0 m^2/m^3
    Quartz		0.0266825	0.05 	m^2/g
    Gypsum		0.0	0.05 	m^2/g
    Pyrite		0.0	0.05 	m^2/g
    Calcite		0.0571	0.7 	m^2/g
    Dolomite		0.0	0.09 	m^2/g
    Siderite		0.0	2.7 	m^2/g
    Uraninite		0.0	0.05 	m^2/g
  /
/
  
CONSTRAINT bentonite_conc
  CONCENTRATIONS
    H+		7.079901		pH
    CO3--	0.002140018 	T
    Ca++ 	0.0140011	T
    Cl-		0.1393439		Z
    Fe++	0.00003310053	T 
    K+		0.001253768	T
    Mg++	0.006513386	T
    Na+		0.1847495		T
    SO4--	0.04290611	T
    H4(SiO4)	0.0002337517	T
    Al+++	1e-16			T
    UO2++	1e-16			T
    O2(aq)	-2.798147		PE
  /
  MINERALS
    Smectite_MX80 	0.5419686307360001	8.5 	m^2/g
    InertMineral		0.09213466722512001	0.0 	m^2/m^3
    Quartz		0.032813981612800004	0.05 	m^2/g
    Gypsum		0.00525830606992	0.05 	m^2/g
    Pyrite		9.592447445882623e-06	0.05 	m^2/g
    Calcite		0.0	0.7 	m^2/g
    Dolomite		0.0	0.09 	m^2/g
    Siderite		0.0	2.7 	m^2/g
    Uraninite		0.0	0.05 	m^2/g
  /
/	

CONSTRAINT source_conc
  CONCENTRATIONS
    H+		7.079901		pH
    CO3--	0.002140018 	T
    Ca++ 	0.0140011	T
    Cl-		0.1393439		Z
    Fe++	0.00003310053	T 
    K+		0.001253768	T
    Mg++	0.006513386	T
    Na+		0.1847495		T
    SO4--	0.04290611	T
    H4(SiO4)	0.0002337517	T
    Al+++	1e-16			T
    UO2++	1e-16			T
    O2(aq)	-2.798147		PE
  /
  MINERALS
    Smectite_MX80 	0.0	0.0 	m^2/m^3
    InertMineral 0.94 0.0 m^2/m^3
    Quartz		0.0	0.05    m^2/g	
    Gypsum		0.0	0.05    m^2/g
    Pyrite		0.0	0.05    m^2/g
    Calcite		0.0	0.7     m^2/g
    Dolomite		0.0	0.09  m^2/g
    Siderite		0.0 2.7   m^2/g
    Uraninite		0.05 0.05 m^2/g
  /
/

CONSTRAINT seawater_conc
  CONCENTRATIONS
H+ 6.917872205704013 pH
O2(aq) 12.997116619068208 PE
Al+++ 1.000006649877289e-16 T
CO3-- 0.0019349748120174 T
Ca++ 0.0287012618609657 T
Cl- 0.3307313248386309 Z
Fe++ 1.8200738569218887e-05 T
H4(SiO4) 0.0002337516907893 T
K+ 0.0052323267957516 T
Mg++ 0.0185130514430373 T
Na+ 0.2665373269729225 T
SO4-- 0.0168846431614199 T
UO2++ 1.0000978698397727e-16 T
  /
/
  
STRATA
  FILE mesh.h5
END
